#

@<TRIPOS>MOLECULE
LIG
 59  63  0 0 0
SMALL
GASTEIGER

@<TRIPOS>ATOM
      1 H21        13.1440   52.6690   20.9320 H         1 LIG         0.0000
      2 H03         5.3410   51.0880   33.6930 H         1 LIG         0.0000
      3 H07         6.3780   53.6970   24.9960 H         1 LIG         0.0000
      4 H13        10.6910   53.0650   21.9920 H         1 LIG         0.0000
      5 H20        12.4260   54.2810   21.1640 H         1 LIG         0.0000
      6 H16        11.2950   50.3630   12.5390 H         1 LIG         0.0000
      7 H11         7.9130   49.9810   20.8720 H         1 LIG         0.0000
      8 H10         9.4700   51.2830   23.6270 H         1 LIG         0.0000
      9 H19        13.6550   54.0270   19.9030 H         1 LIG         0.0000
     10 H04         7.2620   51.5400   35.2110 H         1 LIG         0.0000
     11 H18        14.0540   53.3750   13.9030 H         1 LIG         0.0000
     12 H01         9.4830   52.1200   34.2590 H         1 LIG         0.0000
     13 H06         6.0860   53.5810   27.4570 H         1 LIG         0.0000
     14 H14        10.4180   52.3610   17.0560 H         1 LIG         0.0000
     15 H17        12.9290   52.1670   12.0460 H         1 LIG         0.0000
     16 H05         8.8340   52.0610   29.4630 H         1 LIG         0.0000
     17 H09         7.9450   49.6930   27.4900 H         1 LIG         0.0000
     18 H12         8.7990   50.0190   18.5530 H         1 LIG         0.0000
     19 H08         8.2580   49.8190   25.0290 H         1 LIG         0.0000
     20 H15        10.7790   49.7670   14.8980 H         1 LIG         0.0000
     21 H02         9.7930   52.2520   31.7960 H         1 LIG         0.0000
     22 C01         8.6420   51.9220   33.5940 C.2       1 LIG         0.0000
     23 C02         8.8170   51.9960   32.2090 C.2       1 LIG         0.0000
     24 C03         7.7430   51.7420   31.3540 C.2       1 LIG         0.0000
     25 C04         6.5080   51.4200   31.9040 C.2       1 LIG         0.0000
     26 C05         6.3180   51.3430   33.2830 C.2       1 LIG         0.0000
     27 C06         7.3940   51.5960   34.1300 C.2       1 LIG         0.0000
     28 C07         7.8720   51.8040   29.9070 C.2       1 LIG         0.0000
     29 C08         6.8210   51.5480   29.1110 C.2       1 LIG         0.0000
     30 C09         5.4870   51.2140   29.6940 C.2       1 LIG         0.0000
     31 O10         5.3980   51.1600   31.0820 O.2       1 LIG         0.0000
     32 O11         4.5030   50.9960   28.9930 O.co2     1 LIG         0.0000
     33 C12         7.0000   51.6300   27.6460 C.2       1 LIG         0.0000
     34 C13         6.5630   52.7550   26.9290 C.2       1 LIG         0.0000
     35 C14         6.7340   52.8250   25.5440 C.2       1 LIG         0.0000
     36 C15         7.3610   51.7790   24.8590 C.2       1 LIG         0.0000
     37 C16         7.7870   50.6460   25.5610 C.2       1 LIG         0.0000
     38 C17         7.6080   50.5760   26.9470 C.2       1 LIG         0.0000
     39 C18         7.5340   51.8950   23.3850 C.2       1 LIG         0.0000
     40 O19         6.5900   52.3050   22.7230 O.2       1 LIG         0.0000
     41 N20         8.7930   51.5470   22.9250 N.pl3     1 LIG         0.0000
     42 C21         9.2370   51.5200   21.5850 C.2       1 LIG         0.0000
     43 C22         8.7170   50.6700   20.6120 C.2       1 LIG         0.0000
     44 C23         9.2160   50.6910   19.3030 C.2       1 LIG         0.0000
     45 C24        10.2430   51.5660   18.9540 C.2       1 LIG         0.0000
     46 C25        10.7760   52.4310   19.9300 C.2       1 LIG         0.0000
     47 C26        10.2730   52.3990   21.2370 C.2       1 LIG         0.0000
     48 N          10.7970   51.6430   17.6570 N.pl3     1 LIG         0.0000
     49 C29        11.7900   50.8610   17.1100 C.2       1 LIG         0.0000
     50 O          12.4090   49.9460   17.6340 O.2       1 LIG         0.0000
     51 C30        12.1320   51.2390   15.7250 C.2       1 LIG         0.0000
     52 C31        11.4970   50.5570   14.6790 C.2       1 LIG         0.0000
     53 C32        11.7860   50.8920   13.3560 C.2       1 LIG         0.0000
     54 C33        12.7040   51.9050   13.0800 C.2       1 LIG         0.0000
     55 C34        13.3360   52.5850   14.1250 C.2       1 LIG         0.0000
     56 C          13.0510   52.2560   15.4540 C.2       1 LIG         0.0000
     57 Cl         13.8970   53.1020   16.6970 Cl        1 LIG         0.0000
     58 O27        11.7890   53.2560   19.4940 O.3       1 LIG         0.0000
     59 C28        12.8130   53.5770   20.4280 C.3       1 LIG         0.0000
@<TRIPOS>BOND
     1   12   22 1  
     2   22   23 1  
     3   22   27 2  
     4   21   23 1  
     5   23   24 2  
     6   24   25 1  
     7   24   28 1  
     8   25   26 2  
     9   25   31 1  
    10    2   26 1  
    11   26   27 1  
    12   10   27 1  
    13   16   28 1  
    14   28   29 2  
    15   29   30 1  
    16   29   33 1  
    17   30   31 1  
    18   30   32 2  
    19   33   34 2  
    20   33   38 1  
    21   13   34 1  
    22   34   35 1  
    23    3   35 1  
    24   35   36 2  
    25   36   37 1  
    26   36   39 1  
    27   19   37 1  
    28   37   38 2  
    29   17   38 1  
    30   39   40 2  
    31   39   41 1  
    32    8   41 1  
    33   41   42 1  
    34   42   43 2  
    35   42   47 1  
    36    7   43 1  
    37   43   44 1  
    38   18   44 1  
    39   44   45 2  
    40   45   46 1  
    41   45   48 1  
    42   46   47 2  
    43   46   58 1  
    44    4   47 1  
    45   14   48 1  
    46   48   49 1  
    47   49   50 2  
    48   49   51 1  
    49   51   52 2  
    50   51   56 1  
    51   20   52 1  
    52   52   53 1  
    53    6   53 1  
    54   53   54 2  
    55   15   54 1  
    56   54   55 1  
    57   11   55 1  
    58   55   56 2  
    59   56   57 1  
    60   58   59 1  
    61    1   59 1  
    62    5   59 1  
    63    9   59 1  
