@<TRIPOS>MOLECULE
LIG
59 63 1
SMALL
USER_CHARGES
@<TRIPOS>ATOM
1	C1     8.6420    51.9220    33.5940	C.2	1	noname	-0.0610
2	C2     8.8170    51.9960    32.2090	C.2	1	noname	-0.0386
3	C3     7.7430    51.7420    31.3540	C.2	1	noname	-0.0024
4	C4     6.5080    51.4200    31.9040	C.2	1	noname	0.0158
5	C5     6.3180    51.3430    33.2830	C.2	1	noname	-0.0160
6	C6     7.3940    51.5960    34.1300	C.2	1	noname	-0.0497
7	C7     7.8720    51.8040    29.9070	C.2	1	noname	0.0141
8	C8     6.8210    51.5480    29.1110	C.2	1	noname	0.0572
9	C9     5.4870    51.2140    29.6940	C.2	1	noname	0.1182
10	O1     5.3980    51.1600    31.0820	O.3	1	noname	-0.1483
11	O2     4.5030    50.9960    28.9930	O.2	1	noname	-0.2524
12	C10     7.0000    51.6300    27.6460	C.2	1	noname	-0.0133
13	C11     6.5630    52.7550    26.9290	C.2	1	noname	-0.0191
14	C12     6.7340    52.8250    25.5440	C.2	1	noname	-0.0047
15	C13     7.3610    51.7790    24.8590	C.2	1	noname	0.0009
16	C14     7.7870    50.6460    25.5610	C.2	1	noname	-0.0047
17	C15     7.6080    50.5760    26.9470	C.2	1	noname	-0.0191
18	C16     7.5340    51.8950    23.3850	C.2	1	noname	0.0860
19	O3     6.5900    52.3050    22.7230	O.2	1	noname	-0.2775
20	N1     8.7930    51.5470    22.9250	N.3	1	noname	-0.1385
21	C17     9.2370    51.5200    21.5850	C.2	1	noname	-0.0144
22	C18     8.7170    50.6700    20.6120	C.2	1	noname	-0.0407
23	C19     9.2160    50.6910    19.3030	C.2	1	noname	-0.0205
24	C20    10.2430    51.5660    18.9540	C.2	1	noname	0.0048
25	C21    10.7760    52.4310    19.9300	C.2	1	noname	0.0292
26	C22    10.2730    52.3990    21.2370	C.2	1	noname	0.0002
27	N2    10.7970    51.6430    17.6570	N.3	1	noname	-0.1302
28	C23    11.7900    50.8610    17.1100	C.2	1	noname	0.0946
29	O4    12.4090    49.9460    17.6340	O.2	1	noname	-0.2755
30	C24    12.1320    51.2390    15.7250	C.2	1	noname	0.0195
31	C25    11.4970    50.5570    14.6790	C.2	1	noname	-0.0047
32	C26    11.7860    50.8920    13.3560	C.2	1	noname	-0.0448
33	C27    12.7040    51.9050    13.0800	C.2	1	noname	-0.0311
34	C28    13.3360    52.5850    14.1250	C.2	1	noname	-0.0145
35	C29    13.0510    52.2560    15.4540	C.2	1	noname	0.0310
36	Cl1    13.8970    53.1020    16.6970	Cl	1	noname	-0.0721
37	O5    11.7890    53.2560    19.4940	O.3	1	noname	-0.2695
38	C30    12.8130    53.5770    20.4280	C.3	1	noname	0.0424
39	H1    13.1440    52.6690    20.9320	H	1	noname	0.0535
40	H2     5.3410    51.0880    33.6930	H	1	noname	0.0650
41	H3     6.3780    53.6970    24.9960	H	1	noname	0.0630
42	H4    10.6910    53.0650    21.9920	H	1	noname	0.0667
43	H5    12.4260    54.2810    21.1640	H	1	noname	0.0535
44	H6    11.2950    50.3630    12.5390	H	1	noname	0.0622
45	H7     7.9130    49.9810    20.8720	H	1	noname	0.0639
46	H8     9.4700    51.2830    23.6270	H	1	noname	0.1374
47	H9    13.6550    54.0270    19.9030	H	1	noname	0.0535
48	H10     7.2620    51.5400    35.2110	H	1	noname	0.0623
49	H11    14.0540    53.3750    13.9030	H	1	noname	0.0638
50	H12     9.4830    52.1200    34.2590	H	1	noname	0.0622
51	H13     6.0860    53.5810    27.4570	H	1	noname	0.0629
52	H14    10.4180    52.3610    17.0560	H	1	noname	0.1375
53	H15    12.9290    52.1670    12.0460	H	1	noname	0.0623
54	H16     8.8340    52.0610    29.4630	H	1	noname	0.0638
55	H17     7.9450    49.6930    27.4900	H	1	noname	0.0629
56	H18     8.7990    50.0190    18.5530	H	1	noname	0.0640
57	H19     8.2580    49.8190    25.0290	H	1	noname	0.0630
58	H20    10.7790    49.7670    14.8980	H	1	noname	0.0631
59	H21     9.7930    52.2520    31.7960	H	1	noname	0.0629
@<TRIPOS>BOND
1	1	2	ar
2	1	6	ar
3	2	3	ar
4	3	4	ar
5	3	7	1
6	4	5	ar
7	4	10	1
8	5	6	ar
9	7	8	2
10	8	9	1
11	8	12	1
12	9	10	1
13	9	11	2
14	12	13	ar
15	12	17	ar
16	13	14	ar
17	14	15	ar
18	15	16	ar
19	15	18	1
20	16	17	ar
21	18	19	2
22	18	20	1
23	20	21	1
24	21	22	ar
25	21	26	ar
26	22	23	ar
27	23	24	ar
28	24	25	ar
29	24	27	1
30	25	26	ar
31	25	37	1
32	27	28	1
33	28	29	2
34	28	30	1
35	30	31	ar
36	30	35	ar
37	31	32	ar
38	32	33	ar
39	33	34	ar
40	34	35	ar
41	35	36	1
42	37	38	1
43	38	39	1
44	5	40	1
45	14	41	1
46	26	42	1
47	38	43	1
48	32	44	1
49	22	45	1
50	20	46	1
51	38	47	1
52	6	48	1
53	34	49	1
54	1	50	1
55	13	51	1
56	27	52	1
57	33	53	1
58	7	54	1
59	17	55	1
60	23	56	1
61	16	57	1
62	31	58	1
63	2	59	1
@<TRIPOS>SUBSTRUCTURE
1	noname	1
